Version 4
SHEET 1 2608 1668
WIRE 1760 1024 1344 1024
WIRE 2528 1024 1824 1024
WIRE 1344 1040 1344 1024
WIRE 1856 1104 1424 1104
WIRE 1936 1104 1856 1104
WIRE 2272 1104 2032 1104
WIRE 2304 1104 2272 1104
WIRE 2432 1104 2304 1104
WIRE 2528 1104 2528 1024
WIRE 2528 1104 2432 1104
WIRE 2432 1120 2432 1104
WIRE 2528 1120 2528 1104
WIRE 1344 1136 1344 1120
WIRE 1856 1168 1856 1104
WIRE 1984 1168 1856 1168
WIRE 2304 1184 2304 1104
WIRE 2272 1200 2272 1104
WIRE 2272 1200 1936 1200
WIRE 1424 1216 1424 1104
WIRE 1680 1216 1424 1216
WIRE 1936 1216 1936 1200
WIRE 2432 1216 2432 1184
WIRE 2528 1216 2528 1200
WIRE 1424 1232 1424 1216
WIRE 1984 1232 1984 1168
WIRE 1680 1296 1648 1296
WIRE 1984 1296 1936 1296
WIRE 2016 1296 2016 1152
WIRE 2016 1296 1984 1296
WIRE 2112 1296 2016 1296
WIRE 1424 1328 1424 1312
WIRE 1984 1360 1984 1296
WIRE 1664 1376 1584 1376
WIRE 1680 1376 1664 1376
WIRE 2304 1376 2304 1264
WIRE 2304 1376 1936 1376
FLAG 1648 1296 0
FLAG 2432 1216 0
FLAG 2528 1216 0
FLAG 1424 1328 0
FLAG 1344 1136 0
FLAG 2528 1104 OUT
FLAG 1664 1376 CTL
FLAG 1584 1376 0
FLAG 1984 1440 0
SYMBOL LTC4412 1808 1296 R0
SYMATTR InstName U1
SYMBOL schottky 1760 1040 R270
WINDOW 0 32 32 VTop 2
WINDOW 3 0 32 VBottom 2
SYMATTR InstName D1
SYMATTR Value 1N5819
SYMBOL PMOS 1936 1152 R270
WINDOW 0 90 48 VCenter 2
WINDOW 3 63 45 VCenter 2
SYMATTR InstName Q1
SYMATTR Value FDC638P
SYMBOL RES 2288 1168 R0
SYMATTR InstName R1
SYMATTR Value 470K
SYMBOL cap 2416 1120 R0
SYMATTR InstName C1
SYMATTR Value 1000µ
SYMBOL res 2512 1104 R0
SYMATTR InstName Rload
SYMATTR Value 100
SYMBOL VOLTAGE 1424 1216 R0
SYMATTR InstName V1
SYMATTR Value PWL(0 0 0.00000001 5)
SYMBOL voltage 1344 1024 R0
SYMATTR InstName V2
SYMATTR Value PWL(0 0 1 7)
SYMBOL Cap 1968 1232 R0
SYMATTR InstName C2
SYMATTR Value 2.2µ
SYMBOL Res 1968 1344 R0
SYMATTR InstName R2
SYMATTR Value 100k
TEXT 2368 1368 Left 2 !.tran 1
